pcf
* control data
restart  estimation
    2    31     2     0     1
    1     1 double point   1   0   0
  5.0   2.0   0.3  0.03    10
  3.0   3.0 0.001  0
  0.1
   50  0.01     3     3  0.01     3
    1     1     1
* singular value decomposition
1
10 5E-7
1
* parameter groups
K           relative 0.001  0.0  switch  2.0 parabolic
Qheat       relative 0.001  0.0  switch  2.0 parabolic
* parameter data
K           log  factor   1.000E-1  1.0000000E-5    1.000000E+1 K          1.0000        0.0000      1
Qheat       log  factor   1.000E02  1E-1    		1.000000E5 	Qheat      1.0000        0.0000      1
* observation groups
T
* observation data
T00           293.1500000000000    1      T
T01              293.1522056715387  1      T
T02              293.26449995841153  1      T
T03              294.9599793446969  1      T
T04              299.11653851989837  1      T
T05              305.42438213577725  1      T
T06              312.6019039861549  1      T
T07              318.10260882805903  1      T
T08              323.3620737820708  1      T
T09              326.39311122134256  1      T
T10             329.2697186621125  1      T
T11             330.6684336535801  1      T
T12             331.95296214010034  1      T
T13             332.40012292367226  1      T
T14             332.8472837072442  1      T
T15             333.25650873991106  1      T
T16             333.3875382659404  1      T
T17             333.5185677919698  1      T
T18             333.6386770891025  1      T
T19             333.67870470765916  1      T
T20             333.71873232621584  1      T
T21             333.75607772956977  1      T
T22             333.7737535547699  1      T
T23             333.79142937996994  1      T
T24             333.80776973564804  1      T
T25             333.81431664816466  1      T
T26             333.8208635606814  1      T
T27             333.82690425956673  1      T
T28             333.8292327251551  1      T
T29             333.8315611907435  1      T
T30             333.8336943719192  1      T
* model command line
modelcommands
* model input/output
EXAMPLE004.tpl  EXAMPLE004.inp
EXAMPLE004T.ins  T004.dat
* prior information
